!!>>>>>>>>>>>>>>>>>>>>>>>>>>>>>>>>>>>>>>>>>>>>>>>>>>>>>>>>>>>>>>>>>>>>>>
!! NEMO/OPA  Configuration namelist : used to overwrite defaults values defined in SHARED/namelist_ref
!!>>>>>>>>>>>>>>>>>>>>>>>>>>>>>>>>>>>>>>>>>>>>>>>>>>>>>>>>>>>>>>>>>>>>>>
!
!-----------------------------------------------------------------------
&namrun        !   parameters of the run
!-----------------------------------------------------------------------
   nn_no       =       0   !  job number (no more used...)
   cn_exp      =  "domaincfg"  !  experience name
   nn_it000    =       1   !  first time step
   nn_itend    =      75   !  last  time step (std 5475)
/
!-----------------------------------------------------------------------
&namcfg        !   parameters of the configuration
!-----------------------------------------------------------------------
   !
   ln_e3_dep   = .true.    ! =T : e3=dk[depth] in discret sens. 
   !                       !      ===>>> will become the only possibility in v4.0
   !                       ! =F : e3 analytical derivative of depth function
   !                       !      only there for backward compatibility test with v3.6
   !                       !      
   cp_cfg      =  "orca"   !  name of the configuration
   jp_cfg      =      12   !  resolution of the configuration
   jpidta      =     290   !  1st lateral dimension ( >= jpi )
   jpjdta      =     267   !  2nd    "         "    ( >= jpj )
   jpkdta      =      51   !  number of levels      ( >= jpk )
   jpiglo      =     290   !  1st dimension of global domain --> i =jpidta
   jpjglo      =     267   !  2nd    -                  -    --> j  =jpjdta
   jpizoom     =       1   !  left bottom (i,j) indices of the zoom
   jpjzoom     =       1   !  in data domain indices
   jperio      =       0   !  lateral cond. type (between 0 and 6)
/
!-----------------------------------------------------------------------
&namzgr        !   vertical coordinate
!-----------------------------------------------------------------------
   ln_sco      = .true.
   ln_linssh   = .true.    !  linear free surface
/
&namzgr_sco
ln_s_sf12=.true.,
ln_s_sh94=.false.,
ln_sigcrit=.true.,
rn_alpha=4.4,
rn_bb=0.8,
rn_efold=0.0,
rn_hc=50,
rn_rmax=0.1,
rn_sbot_max=10000.0,
rn_sbot_min=1.0e-5,
rn_theta=6.0,
rn_thetb=1.0,
rn_zb_a=0.024,
rn_zb_b=-0.2,
rn_zs=1.0,
/
!-----------------------------------------------------------------------
&namdom        !   space and time domain (bathymetry, mesh, timestep)
!-----------------------------------------------------------------------
ldbletanh=.false.,
nn_bathy=1,
nn_msh=1,
ppa0=999999.0,
ppa1=999999.0,
ppa2=999999.0,
ppacr=9.0,
ppacr2=999999.0,
ppdzmin=6.0,
ppe1_deg=999999.0,
ppe1_m=999999.0,
ppe2_deg=999999.0,
ppe2_m=999999.0,
ppglam0=999999.0,
ppgphi0=999999.0,
pphmax=5720.0,
ppkth=23.563,
ppkth2=999999.0,
ppsur=999999.0,
rn_bathy=100.0,
rn_rdt=60.0,
rn_wd_ref_depth=0.0,
/
!-----------------------------------------------------------------------
&namcrs        !   Grid coarsening for dynamics output and/or
               !   passive tracer coarsened online simulations
!-----------------------------------------------------------------------
/
!-----------------------------------------------------------------------
&namtsd    !   data : Temperature  & Salinity
!-----------------------------------------------------------------------
/
!-----------------------------------------------------------------------
&namsbc        !   Surface Boundary Condition (surface module)
!-----------------------------------------------------------------------
/
!-----------------------------------------------------------------------
&namsbc_core   !   namsbc_core  CORE bulk formulae
!-----------------------------------------------------------------------
/
!-----------------------------------------------------------------------
&namtra_qsr    !   penetrative solar radiation
!-----------------------------------------------------------------------
/
!-----------------------------------------------------------------------
&namsbc_rnf    !   runoffs namelist surface boundary condition
!-----------------------------------------------------------------------
/
!-----------------------------------------------------------------------
&namsbc_ssr    !   surface boundary condition : sea surface restoring
!-----------------------------------------------------------------------
/
!-----------------------------------------------------------------------
&namsbc_alb    !   albedo parameters
!-----------------------------------------------------------------------
/
!-----------------------------------------------------------------------
&namberg       !   iceberg parameters
!-----------------------------------------------------------------------
/
!-----------------------------------------------------------------------
&namlbc        !   lateral momentum boundary condition
!-----------------------------------------------------------------------
/
!-----------------------------------------------------------------------
&nambfr        !   bottom friction
!-----------------------------------------------------------------------
/
!-----------------------------------------------------------------------
&nambbc        !   bottom temperature boundary condition                (default: NO)
!-----------------------------------------------------------------------
   ln_trabbc   = .true.    !  Apply a geothermal heating at the ocean bottom
/
!-----------------------------------------------------------------------
&nambbl        !   bottom boundary layer scheme
!-----------------------------------------------------------------------
/
!-----------------------------------------------------------------------
&nameos        !   ocean physical parameters
!-----------------------------------------------------------------------
   ln_teos10    = .true.         !  = Use TEOS-10 equation of state
/
!-----------------------------------------------------------------------
&namtra_adv    !   advection scheme for tracer
!-----------------------------------------------------------------------
   ln_traadv_fct =  .true.    !  FCT scheme
      nn_fct_h   =  2               !  =2/4, horizontal 2nd / 4th order 
      nn_fct_v   =  2               !  =2/4, vertical   2nd / COMPACT 4th order 
      nn_fct_zts =  0               !  > 1 , 2nd order FCT scheme with vertical sub-timestepping
      !                             !        (number of sub-timestep = nn_fct_zts)
/
!-----------------------------------------------------------------------
&namtra_adv_mle !  mixed layer eddy parametrisation (Fox-Kemper param)
!-----------------------------------------------------------------------
/
!----------------------------------------------------------------------------------
&namtra_ldf    !   lateral diffusion scheme for tracers
!----------------------------------------------------------------------------------
   !                       !  Operator type:
   ln_traldf_lap   =  .true.   !    laplacian operator
   ln_traldf_blp   =  .false.  !  bilaplacian operator
   !                       !  Direction of action:
   ln_traldf_lev   =  .false.  !  iso-level
   ln_traldf_hor   =  .false.  !  horizontal (geopotential)
   ln_traldf_iso   =  .true.   !  iso-neutral (standard operator)
   ln_traldf_triad =  .false.  !  iso-neutral (triad    operator)
   !
   !		       	         !  iso-neutral options:        
   ln_traldf_msc   =  .true.   !  Method of Stabilizing Correction (both operators)
   rn_slpmax       =   0.01    !  slope limit                      (both operators)
   ln_triad_iso    =  .false.  !  pure horizontal mixing in ML              (triad only)
   rn_sw_triad     =  1        !  =1 switching triad ; =0 all 4 triads used (triad only)
   ln_botmix_triad =  .false.  !  lateral mixing on bottom                  (triad only)
   !
   !                       !  Coefficients:
   nn_aht_ijk_t    = 20        !  space/time variation of eddy coef
   !                                !   =-20 (=-30)    read in eddy_diffusivity_2D.nc (..._3D.nc) file
   !                                !   =  0           constant
   !                                !   = 10 F(k)      =ldf_c1d
   !                                !   = 20 F(i,j)    =ldf_c2d
   !                                !   = 21 F(i,j,t)  =Treguier et al. JPO 1997 formulation
   !                                !   = 30 F(i,j,k)  =ldf_c2d + ldf_c1d
   !                                !   = 31 F(i,j,k,t)=F(local velocity)
   rn_aht_0        = 2000.     !  lateral eddy diffusivity   (lap. operator) [m2/s]
   rn_bht_0        = 1.e+12    !  lateral eddy diffusivity (bilap. operator) [m4/s]
/
!----------------------------------------------------------------------------------
&namtra_ldfeiv !   eddy induced velocity param.
!----------------------------------------------------------------------------------
   ln_ldfeiv     =.true.   ! use eddy induced velocity parameterization
   ln_ldfeiv_dia =.true.   ! diagnose eiv stream function and velocities
   rn_aeiv_0     = 2000.   ! eddy induced velocity coefficient   [m2/s]
   nn_aei_ijk_t  = 21      ! space/time variation of the eiv coeficient
   !                                !   =-20 (=-30)    read in eddy_induced_velocity_2D.nc (..._3D.nc) file
   !                                !   =  0           constant
   !                                !   = 10 F(k)      =ldf_c1d
   !                                !   = 20 F(i,j)    =ldf_c2d
   !                                !   = 21 F(i,j,t)  =Treguier et al. JPO 1997 formulation
   !                                !   = 30 F(i,j,k)  =ldf_c2d + ldf_c1d
/
!-----------------------------------------------------------------------
&namtra_dmp    !   tracer: T & S newtonian damping
!-----------------------------------------------------------------------
/
!-----------------------------------------------------------------------
&namdyn_adv    !   formulation of the momentum advection
!-----------------------------------------------------------------------
/
!-----------------------------------------------------------------------
&namdyn_vor    !   option of physics/algorithm (not control by CPP keys)
!-----------------------------------------------------------------------
   ln_dynvor_ene = .false. !  enstrophy conserving scheme
   ln_dynvor_ens = .false. !  energy conserving scheme
   ln_dynvor_mix = .false. !  mixed scheme
   ln_dynvor_een = .true.  !  energy & enstrophy scheme
      nn_een_e3f = 0             !  e3f = masked averaging of e3t divided by 4 (=0) or by the sum of mask (=1)
/
!-----------------------------------------------------------------------
&namdyn_hpg    !   Hydrostatic pressure gradient option
!-----------------------------------------------------------------------
/
!-----------------------------------------------------------------------
&namdyn_spg    !   Surface pressure gradient
!-----------------------------------------------------------------------
   ln_dynspg_ts = .true.   !  Split-explicit free surface
/
!-----------------------------------------------------------------------
&namdyn_ldf    !   lateral diffusion on momentum
!-----------------------------------------------------------------------
   !                       !  Type of the operator :
   !                           !  no diffusion: set ln_dynldf_lap=..._blp=F 
   ln_dynldf_lap =  .true.     !    laplacian operator
   ln_dynldf_blp =  .false.    !  bilaplacian operator
   !                       !  Direction of action  :
   ln_dynldf_lev =  .true.     !  iso-level
   ln_dynldf_hor =  .false.    !  horizontal (geopotential)
   ln_dynldf_iso =  .false.    !  iso-neutral
   !                       !  Coefficient
   nn_ahm_ijk_t  = -30         !  space/time variation of eddy coef
   !                                !  =-30  read in eddy_viscosity_3D.nc file
   !                                !  =-20  read in eddy_viscosity_2D.nc file
   !                                !  =  0  constant 
   !                                !  = 10  F(k)=c1d
   !                                !  = 20  F(i,j)=F(grid spacing)=c2d
   !                                !  = 30  F(i,j,k)=c2d*c1d
   !                                !  = 31  F(i,j,k)=F(grid spacing and local velocity)
   rn_ahm_0      =  40000.     !  horizontal laplacian eddy viscosity   [m2/s]
   rn_ahm_b      =      0.     !  background eddy viscosity for ldf_iso [m2/s]
   rn_bhm_0      = 1.e+12      !  horizontal bilaplacian eddy viscosity [m4/s]
/
!-----------------------------------------------------------------------
&namzdf        !   vertical physics
!-----------------------------------------------------------------------
/
!-----------------------------------------------------------------------
&namzdf_tke    !   turbulent eddy kinetic dependent vertical diffusion  ("key_zdftke")
!-----------------------------------------------------------------------
/
!-----------------------------------------------------------------------
&namzdf_ddm    !   double diffusive mixing parameterization             ("key_zdfddm")
!-----------------------------------------------------------------------
/
!-----------------------------------------------------------------------
&namzdf_tmx    !   tidal mixing parameterization                        ("key_zdftmx")
!-----------------------------------------------------------------------
/
!-----------------------------------------------------------------------
&nammpp        !   Massively Parallel Processing                        ("key_mpp_mpi)
!-----------------------------------------------------------------------
/
!-----------------------------------------------------------------------
&namctl        !   Control prints & Benchmark
!-----------------------------------------------------------------------
/
!-----------------------------------------------------------------------
&namptr       !   Poleward Transport Diagnostic
!-----------------------------------------------------------------------
/
!-----------------------------------------------------------------------
&namhsb       !  Heat and salt budgets
!-----------------------------------------------------------------------
/
!-----------------------------------------------------------------------
&namobs       !  observation usage
!-----------------------------------------------------------------------
/
!-----------------------------------------------------------------------
&nam_asminc   !   assimilation increments                               ('key_asminc')
!-----------------------------------------------------------------------
/
